/*--------------------------------*- C++ -*----------------------------------*\
| =========                 |                                                 |
| \\      /  F ield         | OpenFOAM: The Open Source CFD Toolbox           |
|  \\    /   O peration     | Version:  v1812                                 |
|   \\  /    A nd           | Web:      www.OpenFOAM.com                      |
|    \\/     M anipulation  |                                                 |
\*---------------------------------------------------------------------------*/
FoamFile
{
    version     2.0;
    format      ascii;
    class       dictionary;
    object      blockMeshDict;
}

// * * * * * * * * * * * * * * * * * * * * * * * * * * * * * * * * * * * * * //

scale   1;

midX	0.0;
midY	0.0;
midZ	0.0;

xLen	0.04;
yLen	0.08;
zLen	0.04;

minX	#calc "$midX - $xLen/2";
maxX	#calc "$midX + $xLen/2";
minY	#calc "$midY - $yLen/2";
maxY	#calc "$midY + $yLen/2";
minZ	#calc "$midZ - $zLen/2";
maxZ	#calc "$midZ + $zLen/2";

xDiv	10;
yDiv	#calc "$yLen/($xLen/$xDiv)";
zDiv	#calc "$zLen/($xLen/$xDiv)";

vertices
(
    ($minX $minY $minZ)
    ($maxX $minY $minZ)
    ($maxX $maxY $minZ)
    ($minX $maxY $minZ)
    ($minX $minY $maxZ)
    ($maxX $minY $maxZ)
    ($maxX $maxY $maxZ)
    ($minX $maxY $maxZ)
);

blocks
(
    hex (0 1 2 3 4 5 6 7) ($xDiv $yDiv $zDiv) simpleGrading (1 1 1)
);

edges
(
);

boundary
(
    domain
    {
        type overset;
        faces
        (
            (3 7 6 2)
            (1 5 4 0)
			(4 5 6 7)
			(0 3 2 1)
			(0 4 7 3)
			(2 6 5 1)
        );
    }

);

// ************************************************************************* //
