/*--------------------------------*- C++ -*----------------------------------*\
  =========                 |
  \\      /  F ield         | OpenFOAM: The Open Source CFD Toolbox
   \\    /   O peration     | Website:  https://openfoam.org
    \\  /    A nd           | Version:  6
     \\/     M anipulation  |
\*---------------------------------------------------------------------------*/
FoamFile
{
    version     2.0;
    format      ascii;
    class       dictionary;
    object      meshQualityDict;
}
// * * * * * * * * * * * * * * * * * * * * * * * * * * * * * * * * * * * * * //

// Include defaults parameters from master dictionary
#includeEtc "caseDicts/meshQualityDict"

//- minFaceWeight (0 -> 0.5)
minFaceWeight 0.1;
//- Number of error distribution iterations
nSmoothScale 50;
//- Amount to scale back displacement at error points
errorReduction 0.75;
maxNonOrtho             60;
minArea                 1E-8;
minVol                  1e-14;

maxBoundarySkewness 4;
maxInternalSkewness 2; 



// ************************************************************************* //
