/*--------------------------------*- C++ -*----------------------------------*\
| =========                 |                                                 |
| \\      /  F ield         | OpenFOAM: The Open Source CFD Toolbox           |
|  \\    /   O peration     | Version:  v1812                                 |
|   \\  /    A nd           | Web:      www.OpenFOAM.com                      |
|    \\/     M anipulation  |                                                 |
\*---------------------------------------------------------------------------*/
FoamFile
{
    version     2.0;
    format      ascii;
    class       dictionary;
    object      topoSetDict;
}
// * * * * * * * * * * * * * * * * * * * * * * * * * * * * * * * * * * * * * //

actions
(
    {
        name    c2;
        type    cellSet;
        action  new;
        source  regionToCell;
        insidePoints ((0 0 0));
    }
	
	{
		name	domain2;
		type	cellZoneSet;
		action	new;
		source	setToCellZone;
		sourceInfo
		{
			set		c2;
		}
	}
);

// ************************************************************************* //
