/*--------------------------------*- C++ -*----------------------------------*\
| =========                 |                                                 |
| \\      /  F ield         | OpenFOAM: The Open Source CFD Toolbox           |
|  \\    /   O peration     | Version:  v1812                                 |
|   \\  /    A nd           | Web:      www.OpenFOAM.com                      |
|    \\/     M anipulation  |                                                 |
\*---------------------------------------------------------------------------*/
FoamFile
{
    version     2.0;
    format      ascii;
    class       dictionary;
    object      topoSetDict;
}
// * * * * * * * * * * * * * * * * * * * * * * * * * * * * * * * * * * * * * //

actions
(

    {
        name    c0;
        type    cellSet;
        action  new;
        source  cellToCell;
        set     c1;
    }

	
	{
		name	domain1;
		type	cellZoneSet;
		action	new;
		source	setToCellZone;
		sourceInfo
		{
			set		c0;
		}
	}
);

// ************************************************************************* //
